20
Created with MDTraj 1.9.6, 2021-09-10
CA   -6.424   16.631    2.987
CA   -6.392   12.824    3.629
CA   -3.197   11.841    1.580
CA   -1.378   10.413    4.674
CA   -4.524    8.373    5.575
CA   -4.642    6.697    2.082
CA   -0.822    6.007    2.306
CA   -1.224    4.589    5.888
CA   -4.041    2.343    4.586
CA   -2.035    1.312    1.498
CA   -4.024    3.108   -1.258
CA   -2.038    2.546   -4.440
CA   -1.730   -1.127   -3.423
CA   -5.463   -1.773   -3.056
CA   -6.314    0.703   -5.931
CA   -8.342    3.306   -3.854
CA   -8.107    6.703   -5.746
CA   -5.937    9.561   -4.292
CA   -8.278   11.816   -2.275
CA   -8.806   15.597   -2.260
