73
Created with MDTraj 1.9.6, 2021-09-10
CA    6.359   -4.340   27.489
CA    5.008   -0.754   27.930
CA    5.617    0.729   24.526
CA    3.468   -1.661   22.535
CA    0.972    1.072   21.635
CA    3.754    3.416   20.478
CA    4.917    0.865   17.961
CA    1.463    0.150   16.557
CA    0.932    3.889   15.948
CA    4.447    4.181   14.614
CA    3.669    1.443   12.057
CA    0.366    3.230   10.965
CA    1.839    6.735   10.597
CA    4.110    5.188    7.962
CA    1.293    3.529    6.232
CA   -1.047    6.548    6.201
CA    1.651    8.617    4.550
CA    2.672    5.965    2.132
CA   -0.695    4.534    0.882
CA   -1.966    7.903   -0.322
CA    0.787    9.277   -2.541
CA    3.390   10.217    0.128
CA    5.764    7.640   -1.320
CA    5.992   10.099   -4.251
CA    6.313   13.257   -2.002
CA    8.743   12.048    0.658
CA   11.886    9.931    0.627
CA   11.592    6.145   -0.052
CA   15.050    5.236    1.264
CA   14.338    6.683    4.691
CA   10.985    4.967    5.064
CA   13.072    1.790    4.215
CA   15.747    2.700    6.780
CA   12.894    3.300    9.229
CA   11.573   -0.255    9.172
CA   15.016   -1.799    9.136
CA   15.594   -0.007   12.515
CA   11.974   -0.949   13.522
CA   12.882   -4.649   13.903
CA   15.915   -3.960   16.201
CA   13.836   -1.577   18.324
CA   10.630   -3.682   18.578
CA   12.481   -6.903   19.560
CA   14.855   -5.571   22.232
CA   12.670   -5.886   25.404
CA   13.647   -9.587   25.903
CA   15.350  -10.271   22.477
CA   12.929  -13.042   21.574
CA    9.963  -13.199   19.221
CA    6.471  -14.545   19.460
CA    3.162  -14.992   17.568
CA    1.893  -11.522   18.581
CA    5.250   -9.778   18.056
CA    5.785  -11.612   14.565
CA    2.210  -10.564   13.607
CA    3.460   -6.936   14.152
CA    6.615   -7.822   12.260
CA    4.629   -9.040    9.373
CA    3.151   -5.534    8.868
CA    6.679   -4.156    8.330
CA    7.420   -6.638    5.404
CA    4.470   -5.358    3.301
CA    5.971   -1.913    3.838
CA    8.939   -3.208    1.890
CA    6.509   -4.367   -0.827
CA    4.626   -0.986   -0.848
CA    7.969    0.820   -1.379
CA    8.738   -1.738   -4.390
CA    5.334   -0.461   -5.700
CA    6.786    3.042   -5.962
CA   10.272    2.283   -7.288
CA    9.058   -0.139   -9.901
CA    5.816   -0.958  -11.933
